data_sgu-29b_1\(2)
_audit_creation_date              2025-02-06
_audit_creation_method            'Materials Studio'
_symmetry_space_group_name_H-M    'P1'
_symmetry_Int_Tables_number       1
_symmetry_cell_setting            triclinic
loop_
_symmetry_equiv_pos_as_xyz
  x,y,z
_cell_length_a                    20.8200
_cell_length_b                    20.8190
_cell_length_c                    14.6970
_cell_angle_alpha                 90.0000
_cell_angle_beta                  110.7300
_cell_angle_gamma                 90.0000
loop_
_atom_site_label
_atom_site_type_symbol
_atom_site_fract_x
_atom_site_fract_y
_atom_site_fract_z
_atom_site_U_iso_or_equiv
_atom_site_adp_type
_atom_site_occupancy
Si1    Si    0.24909   0.06259   0.24949   0.00000  Uiso   1.00
O2     O     0.37297   0.87246   0.00024   0.00000  Uiso   1.00
O3     O     0.31082   0.10699   0.31523   0.00000  Uiso   1.00
O4     O     0.43778   0.35840   0.18606   0.00000  Uiso   1.00
O5     O     0.53049   0.76657   0.18649   0.00000  Uiso   1.00
O6     O     0.43915   0.85680   0.18418   0.00000  Uiso   1.00
O7     O     0.18809   0.10887   0.18562   0.00000  Uiso   1.00
O8     O     0.21990   0.01612   0.31305   0.00000  Uiso   1.00
O9     O     0.27771   0.01820   0.18331   0.00000  Uiso   1.00
O10    O     0.47221   0.26806   0.31627   0.00000  Uiso   1.00
O11    O     0.24662   0.99791   0.99886   0.00000  Uiso   1.00
O12    O     0.49794   0.25289   0.50055   0.00000  Uiso   1.00
O13    O     0.12201   0.12220   0.99919   0.00000  Uiso   1.00
Cu14   Cu    0.37361   0.37328   0.50133   0.00000  Uiso   1.00
Si15   Si    0.25762   0.96125   0.10339   0.00000  Uiso   1.00
Si16   Si    0.36206   0.85698   0.10386   0.00000  Uiso   1.00
Si17   Si    0.18420   0.01989   0.39513   0.00000  Uiso   1.00
Si18   Si    0.43514   0.26839   0.39631   0.00000  Uiso   1.00
Si19   Si    0.50622   0.71051   0.10427   0.00000  Uiso   1.00
Si20   Si    0.42111   0.41440   0.10420   0.00000  Uiso   1.00
Si21   Si    0.11160   0.10500   0.10374   0.00000  Uiso   1.00
Si22   Si    0.33078   0.16403   0.39571   0.00000  Uiso   1.00
O23    O     0.39390   0.33193   0.39620   0.00000  Uiso   1.00
O24    O     0.32810   0.92030   0.13270   0.00000  Uiso   1.00
O25    O     0.48780   0.45070   0.10450   0.00000  Uiso   1.00
O26    O     0.38650   0.20540   0.36660   0.00000  Uiso   1.00
O27    O     0.19360   0.92010   0.10310   0.00000  Uiso   1.00
O28    O     0.07510   0.03850   0.10390   0.00000  Uiso   1.00
O29    O     0.13050   0.96040   0.36510   0.00000  Uiso   1.00
O30    O     0.32090   0.79310   0.10440   0.00000  Uiso   1.00
O31    O     0.26670   0.20480   0.39540   0.00000  Uiso   1.00
O32    O     0.14760   0.08654   0.39450   0.00000  Uiso   1.00
O33    O     0.44000   0.67410   0.10510   0.00000  Uiso   1.00
O34    O     0.57300   0.66390   0.13370   0.00000  Uiso   1.00
Na35   Na    0.76421   0.81238   0.30670   0.00000  Uiso   1.00
Na36   Na    0.61250   0.43394   0.18653   0.00000  Uiso   1.00
Na37   Na    0.64365   0.69124   0.31112   0.00000  Uiso   1.00
Si38   Si    0.74909   0.56259   0.24949   0.00000  Uiso   1.00
O39    O     0.87297   0.37246   0.00024   0.00000  Uiso   1.00
O40    O     0.81082   0.60699   0.31523   0.00000  Uiso   1.00
O41    O     0.93778   0.85840   0.18606   0.00000  Uiso   1.00
O42    O     0.03049   0.26657   0.18649   0.00000  Uiso   1.00
O43    O     0.93915   0.35680   0.18418   0.00000  Uiso   1.00
O44    O     0.68809   0.60887   0.18562   0.00000  Uiso   1.00
O45    O     0.71990   0.51612   0.31305   0.00000  Uiso   1.00
O46    O     0.77771   0.51820   0.18331   0.00000  Uiso   1.00
O47    O     0.97221   0.76806   0.31627   0.00000  Uiso   1.00
O48    O     0.74662   0.49791   0.99886   0.00000  Uiso   1.00
O49    O     0.99794   0.75289   0.50055   0.00000  Uiso   1.00
O50    O     0.62201   0.62220   0.99919   0.00000  Uiso   1.00
Cu51   Cu    0.87361   0.87328   0.50133   0.00000  Uiso   1.00
Si52   Si    0.75762   0.46125   0.10339   0.00000  Uiso   1.00
Si53   Si    0.86206   0.35698   0.10386   0.00000  Uiso   1.00
Si54   Si    0.68420   0.51989   0.39513   0.00000  Uiso   1.00
Si55   Si    0.93514   0.76839   0.39631   0.00000  Uiso   1.00
Si56   Si    0.00622   0.21051   0.10427   0.00000  Uiso   1.00
Si57   Si    0.92111   0.91440   0.10420   0.00000  Uiso   1.00
Si58   Si    0.61160   0.60500   0.10374   0.00000  Uiso   1.00
Si59   Si    0.83078   0.66403   0.39571   0.00000  Uiso   1.00
O60    O     0.89390   0.83193   0.39620   0.00000  Uiso   1.00
O61    O     0.82810   0.42030   0.13270   0.00000  Uiso   1.00
O62    O     0.98780   0.95070   0.10450   0.00000  Uiso   1.00
O63    O     0.88650   0.70540   0.36660   0.00000  Uiso   1.00
O64    O     0.69360   0.42010   0.10310   0.00000  Uiso   1.00
O65    O     0.57510   0.53850   0.10390   0.00000  Uiso   1.00
O66    O     0.63050   0.46040   0.36510   0.00000  Uiso   1.00
O67    O     0.82090   0.29310   0.10440   0.00000  Uiso   1.00
O68    O     0.76670   0.70480   0.39540   0.00000  Uiso   1.00
O69    O     0.64760   0.58654   0.39450   0.00000  Uiso   1.00
O70    O     0.94000   0.17410   0.10510   0.00000  Uiso   1.00
O71    O     0.07300   0.16390   0.13370   0.00000  Uiso   1.00
Na72   Na    0.26421   0.31238   0.30670   0.00000  Uiso   1.00
Na73   Na    0.11250   0.93394   0.18653   0.00000  Uiso   1.00
Na74   Na    0.14365   0.19124   0.31112   0.00000  Uiso   1.00
Na75   Na    0.98990   0.56290   0.20950   0.00000  Uiso   1.00
Si76   Si    0.75091   0.06259   0.25051   0.00000  Uiso   1.00
O77    O     0.62703   0.87246   0.49976   0.00000  Uiso   1.00
O78    O     0.68918   0.10699   0.18477   0.00000  Uiso   1.00
O79    O     0.56222   0.35840   0.31394   0.00000  Uiso   1.00
O80    O     0.46951   0.76657   0.31351   0.00000  Uiso   1.00
O81    O     0.56085   0.85680   0.31582   0.00000  Uiso   1.00
O82    O     0.81191   0.10887   0.31438   0.00000  Uiso   1.00
O83    O     0.78010   0.01612   0.18695   0.00000  Uiso   1.00
O84    O     0.72229   0.01820   0.31669   0.00000  Uiso   1.00
O85    O     0.52779   0.26806   0.18373   0.00000  Uiso   1.00
O86    O     0.75338   0.99791   0.50114   0.00000  Uiso   1.00
O87    O     0.50206   0.25289   0.99945   0.00000  Uiso   1.00
O88    O     0.87799   0.12220   0.50081   0.00000  Uiso   1.00
Cu89   Cu    0.62639   0.37328   0.99867   0.00000  Uiso   1.00
Si90   Si    0.74238   0.96125   0.39661   0.00000  Uiso   1.00
Si91   Si    0.63794   0.85698   0.39614   0.00000  Uiso   1.00
Si92   Si    0.81580   0.01989   0.10487   0.00000  Uiso   1.00
Si93   Si    0.56486   0.26839   0.10369   0.00000  Uiso   1.00
Si94   Si    0.49378   0.71051   0.39573   0.00000  Uiso   1.00
Si95   Si    0.57889   0.41440   0.39580   0.00000  Uiso   1.00
Si96   Si    0.88840   0.10500   0.39626   0.00000  Uiso   1.00
Si97   Si    0.66922   0.16403   0.10429   0.00000  Uiso   1.00
O98    O     0.60610   0.33193   0.10380   0.00000  Uiso   1.00
O99    O     0.67190   0.92030   0.36730   0.00000  Uiso   1.00
O100   O     0.51220   0.45070   0.39550   0.00000  Uiso   1.00
O101   O     0.61350   0.20540   0.13340   0.00000  Uiso   1.00
O102   O     0.80640   0.92010   0.39690   0.00000  Uiso   1.00
O103   O     0.92490   0.03850   0.39610   0.00000  Uiso   1.00
O104   O     0.86950   0.96040   0.13490   0.00000  Uiso   1.00
O105   O     0.67910   0.79310   0.39560   0.00000  Uiso   1.00
O106   O     0.73330   0.20480   0.10460   0.00000  Uiso   1.00
O107   O     0.85240   0.08654   0.10550   0.00000  Uiso   1.00
O108   O     0.56000   0.67410   0.39490   0.00000  Uiso   1.00
O109   O     0.42700   0.66390   0.36630   0.00000  Uiso   1.00
Na110  Na    0.23579   0.81238   0.19330   0.00000  Uiso   1.00
Na111  Na    0.38750   0.43394   0.31347   0.00000  Uiso   1.00
Na112  Na    0.35635   0.69124   0.18888   0.00000  Uiso   1.00
Na113  Na    0.51010   0.06290   0.29050   0.00000  Uiso   1.00
Si114  Si    0.25091   0.56259   0.25051   0.00000  Uiso   1.00
O115   O     0.12703   0.37246   0.49976   0.00000  Uiso   1.00
O116   O     0.18918   0.60699   0.18477   0.00000  Uiso   1.00
O117   O     0.06222   0.85840   0.31394   0.00000  Uiso   1.00
O118   O     0.96951   0.26657   0.31351   0.00000  Uiso   1.00
O119   O     0.06085   0.35680   0.31582   0.00000  Uiso   1.00
O120   O     0.31191   0.60887   0.31438   0.00000  Uiso   1.00
O121   O     0.28010   0.51612   0.18695   0.00000  Uiso   1.00
O122   O     0.22229   0.51820   0.31669   0.00000  Uiso   1.00
O123   O     0.02779   0.76806   0.18373   0.00000  Uiso   1.00
O124   O     0.25338   0.49791   0.50114   0.00000  Uiso   1.00
O125   O     0.00206   0.75289   0.99945   0.00000  Uiso   1.00
O126   O     0.37799   0.62220   0.50081   0.00000  Uiso   1.00
Cu127  Cu    0.12639   0.87328   0.99867   0.00000  Uiso   1.00
Si128  Si    0.24238   0.46125   0.39661   0.00000  Uiso   1.00
Si129  Si    0.13794   0.35698   0.39614   0.00000  Uiso   1.00
Si130  Si    0.31580   0.51989   0.10487   0.00000  Uiso   1.00
Si131  Si    0.06486   0.76839   0.10369   0.00000  Uiso   1.00
Si132  Si    0.99378   0.21051   0.39573   0.00000  Uiso   1.00
Si133  Si    0.07889   0.91440   0.39580   0.00000  Uiso   1.00
Si134  Si    0.38840   0.60500   0.39626   0.00000  Uiso   1.00
Si135  Si    0.16922   0.66403   0.10429   0.00000  Uiso   1.00
O136   O     0.10610   0.83193   0.10380   0.00000  Uiso   1.00
O137   O     0.17190   0.42030   0.36730   0.00000  Uiso   1.00
O138   O     0.01220   0.95070   0.39550   0.00000  Uiso   1.00
O139   O     0.11350   0.70540   0.13340   0.00000  Uiso   1.00
O140   O     0.30640   0.42010   0.39690   0.00000  Uiso   1.00
O141   O     0.42490   0.53850   0.39610   0.00000  Uiso   1.00
O142   O     0.36950   0.46040   0.13490   0.00000  Uiso   1.00
O143   O     0.17910   0.29310   0.39560   0.00000  Uiso   1.00
O144   O     0.23330   0.70480   0.10460   0.00000  Uiso   1.00
O145   O     0.35240   0.58654   0.10550   0.00000  Uiso   1.00
O146   O     0.06000   0.17410   0.39490   0.00000  Uiso   1.00
O147   O     0.92700   0.16390   0.36630   0.00000  Uiso   1.00
Na148  Na    0.73579   0.31238   0.19330   0.00000  Uiso   1.00
Na149  Na    0.88750   0.93394   0.31347   0.00000  Uiso   1.00
Na150  Na    0.85635   0.19124   0.18888   0.00000  Uiso   1.00
Si151  Si    0.75091   0.93741   0.75051   0.00000  Uiso   1.00
O152   O     0.62703   0.12754   0.99976   0.00000  Uiso   1.00
O153   O     0.68918   0.89301   0.68477   0.00000  Uiso   1.00
O154   O     0.56222   0.64160   0.81394   0.00000  Uiso   1.00
O155   O     0.46951   0.23343   0.81351   0.00000  Uiso   1.00
O156   O     0.56085   0.14320   0.81582   0.00000  Uiso   1.00
O157   O     0.81191   0.89113   0.81438   0.00000  Uiso   1.00
O158   O     0.78010   0.98388   0.68695   0.00000  Uiso   1.00
O159   O     0.72229   0.98180   0.81669   0.00000  Uiso   1.00
O160   O     0.52779   0.73194   0.68373   0.00000  Uiso   1.00
O161   O     0.75338   0.00209   0.00114   0.00000  Uiso   1.00
O162   O     0.50206   0.74711   0.49945   0.00000  Uiso   1.00
O163   O     0.87799   0.87780   0.00081   0.00000  Uiso   1.00
Cu164  Cu    0.62639   0.62672   0.49867   0.00000  Uiso   1.00
Si165  Si    0.74238   0.03875   0.89661   0.00000  Uiso   1.00
Si166  Si    0.63794   0.14302   0.89614   0.00000  Uiso   1.00
Si167  Si    0.81580   0.98011   0.60487   0.00000  Uiso   1.00
Si168  Si    0.56486   0.73161   0.60369   0.00000  Uiso   1.00
Si169  Si    0.49378   0.28949   0.89573   0.00000  Uiso   1.00
Si170  Si    0.57889   0.58560   0.89580   0.00000  Uiso   1.00
Si171  Si    0.88840   0.89500   0.89626   0.00000  Uiso   1.00
Si172  Si    0.66922   0.83597   0.60429   0.00000  Uiso   1.00
O173   O     0.60610   0.66807   0.60380   0.00000  Uiso   1.00
O174   O     0.67190   0.07970   0.86730   0.00000  Uiso   1.00
O175   O     0.51220   0.54930   0.89550   0.00000  Uiso   1.00
O176   O     0.61350   0.79460   0.63340   0.00000  Uiso   1.00
O177   O     0.80640   0.07990   0.89690   0.00000  Uiso   1.00
O178   O     0.92490   0.96150   0.89610   0.00000  Uiso   1.00
O179   O     0.86950   0.03960   0.63490   0.00000  Uiso   1.00
O180   O     0.67910   0.20690   0.89560   0.00000  Uiso   1.00
O181   O     0.73330   0.79520   0.60460   0.00000  Uiso   1.00
O182   O     0.85240   0.91346   0.60550   0.00000  Uiso   1.00
O183   O     0.56000   0.32590   0.89490   0.00000  Uiso   1.00
O184   O     0.42700   0.33610   0.86630   0.00000  Uiso   1.00
Na185  Na    0.23579   0.18762   0.69330   0.00000  Uiso   1.00
Na186  Na    0.38750   0.56606   0.81347   0.00000  Uiso   1.00
Na187  Na    0.35635   0.30876   0.68888   0.00000  Uiso   1.00
Si188  Si    0.25091   0.43741   0.75051   0.00000  Uiso   1.00
O189   O     0.12703   0.62754   0.99976   0.00000  Uiso   1.00
O190   O     0.18918   0.39301   0.68477   0.00000  Uiso   1.00
O191   O     0.06222   0.14160   0.81394   0.00000  Uiso   1.00
O192   O     0.96951   0.73343   0.81351   0.00000  Uiso   1.00
O193   O     0.06085   0.64320   0.81582   0.00000  Uiso   1.00
O194   O     0.31191   0.39113   0.81438   0.00000  Uiso   1.00
O195   O     0.28010   0.48388   0.68695   0.00000  Uiso   1.00
O196   O     0.22229   0.48180   0.81669   0.00000  Uiso   1.00
O197   O     0.02779   0.23194   0.68373   0.00000  Uiso   1.00
O198   O     0.25338   0.50209   0.00114   0.00000  Uiso   1.00
O199   O     0.00206   0.24711   0.49945   0.00000  Uiso   1.00
O200   O     0.37799   0.37780   0.00081   0.00000  Uiso   1.00
Cu201  Cu    0.12639   0.12672   0.49867   0.00000  Uiso   1.00
Si202  Si    0.24238   0.53875   0.89661   0.00000  Uiso   1.00
Si203  Si    0.13794   0.64302   0.89614   0.00000  Uiso   1.00
Si204  Si    0.31580   0.48011   0.60487   0.00000  Uiso   1.00
Si205  Si    0.06486   0.23161   0.60369   0.00000  Uiso   1.00
Si206  Si    0.99378   0.78949   0.89573   0.00000  Uiso   1.00
Si207  Si    0.07889   0.08560   0.89580   0.00000  Uiso   1.00
Si208  Si    0.38840   0.39500   0.89626   0.00000  Uiso   1.00
Si209  Si    0.16922   0.33597   0.60429   0.00000  Uiso   1.00
O210   O     0.10610   0.16807   0.60380   0.00000  Uiso   1.00
O211   O     0.17190   0.57970   0.86730   0.00000  Uiso   1.00
O212   O     0.01220   0.04930   0.89550   0.00000  Uiso   1.00
O213   O     0.11350   0.29460   0.63340   0.00000  Uiso   1.00
O214   O     0.30640   0.57990   0.89690   0.00000  Uiso   1.00
O215   O     0.42490   0.46150   0.89610   0.00000  Uiso   1.00
O216   O     0.36950   0.53960   0.63490   0.00000  Uiso   1.00
O217   O     0.17910   0.70690   0.89560   0.00000  Uiso   1.00
O218   O     0.23330   0.29520   0.60460   0.00000  Uiso   1.00
O219   O     0.35240   0.41346   0.60550   0.00000  Uiso   1.00
O220   O     0.06000   0.82590   0.89490   0.00000  Uiso   1.00
O221   O     0.92700   0.83610   0.86630   0.00000  Uiso   1.00
Na222  Na    0.73579   0.68762   0.69330   0.00000  Uiso   1.00
Na223  Na    0.88750   0.06606   0.81347   0.00000  Uiso   1.00
Na224  Na    0.85635   0.80876   0.68888   0.00000  Uiso   1.00
Na225  Na    0.01010   0.43710   0.79050   0.00000  Uiso   1.00
Si226  Si    0.24909   0.93741   0.74949   0.00000  Uiso   1.00
O227   O     0.37297   0.12754   0.50024   0.00000  Uiso   1.00
O228   O     0.31082   0.89301   0.81523   0.00000  Uiso   1.00
O229   O     0.43778   0.64160   0.68606   0.00000  Uiso   1.00
O230   O     0.53049   0.23343   0.68649   0.00000  Uiso   1.00
O231   O     0.43915   0.14320   0.68418   0.00000  Uiso   1.00
O232   O     0.18809   0.89113   0.68562   0.00000  Uiso   1.00
O233   O     0.21990   0.98388   0.81305   0.00000  Uiso   1.00
O234   O     0.27771   0.98180   0.68331   0.00000  Uiso   1.00
O235   O     0.47221   0.73194   0.81627   0.00000  Uiso   1.00
O236   O     0.24662   0.00209   0.49886   0.00000  Uiso   1.00
O237   O     0.49794   0.74711   0.00055   0.00000  Uiso   1.00
O238   O     0.12201   0.87780   0.49919   0.00000  Uiso   1.00
Cu239  Cu    0.37361   0.62672   0.00133   0.00000  Uiso   1.00
Si240  Si    0.25762   0.03875   0.60339   0.00000  Uiso   1.00
Si241  Si    0.36206   0.14302   0.60386   0.00000  Uiso   1.00
Si242  Si    0.18420   0.98011   0.89513   0.00000  Uiso   1.00
Si243  Si    0.43514   0.73161   0.89631   0.00000  Uiso   1.00
Si244  Si    0.50622   0.28949   0.60427   0.00000  Uiso   1.00
Si245  Si    0.42111   0.58560   0.60420   0.00000  Uiso   1.00
Si246  Si    0.11160   0.89500   0.60374   0.00000  Uiso   1.00
Si247  Si    0.33078   0.83597   0.89571   0.00000  Uiso   1.00
O248   O     0.39390   0.66807   0.89620   0.00000  Uiso   1.00
O249   O     0.32810   0.07970   0.63270   0.00000  Uiso   1.00
O250   O     0.48780   0.54930   0.60450   0.00000  Uiso   1.00
O251   O     0.38650   0.79460   0.86660   0.00000  Uiso   1.00
O252   O     0.19360   0.07990   0.60310   0.00000  Uiso   1.00
O253   O     0.07510   0.96150   0.60390   0.00000  Uiso   1.00
O254   O     0.13050   0.03960   0.86510   0.00000  Uiso   1.00
O255   O     0.32090   0.20690   0.60440   0.00000  Uiso   1.00
O256   O     0.26670   0.79520   0.89540   0.00000  Uiso   1.00
O257   O     0.14760   0.91346   0.89450   0.00000  Uiso   1.00
O258   O     0.44000   0.32590   0.60510   0.00000  Uiso   1.00
O259   O     0.57300   0.33610   0.63370   0.00000  Uiso   1.00
Na260  Na    0.76421   0.18762   0.80670   0.00000  Uiso   1.00
Na261  Na    0.61250   0.56606   0.68653   0.00000  Uiso   1.00
Na262  Na    0.64365   0.30876   0.81112   0.00000  Uiso   1.00
Na263  Na    0.48990   0.93710   0.70950   0.00000  Uiso   1.00
Si264  Si    0.74909   0.43741   0.74949   0.00000  Uiso   1.00
O265   O     0.87297   0.62754   0.50024   0.00000  Uiso   1.00
O266   O     0.81082   0.39301   0.81523   0.00000  Uiso   1.00
O267   O     0.93778   0.14160   0.68606   0.00000  Uiso   1.00
O268   O     0.03049   0.73343   0.68649   0.00000  Uiso   1.00
O269   O     0.93915   0.64320   0.68418   0.00000  Uiso   1.00
O270   O     0.68809   0.39113   0.68562   0.00000  Uiso   1.00
O271   O     0.71990   0.48388   0.81305   0.00000  Uiso   1.00
O272   O     0.77771   0.48180   0.68331   0.00000  Uiso   1.00
O273   O     0.97221   0.23194   0.81627   0.00000  Uiso   1.00
O274   O     0.74662   0.50209   0.49886   0.00000  Uiso   1.00
O275   O     0.99794   0.24711   0.00055   0.00000  Uiso   1.00
O276   O     0.62201   0.37780   0.49919   0.00000  Uiso   1.00
Cu277  Cu    0.87361   0.12672   0.00133   0.00000  Uiso   1.00
Si278  Si    0.75762   0.53875   0.60339   0.00000  Uiso   1.00
Si279  Si    0.86206   0.64302   0.60386   0.00000  Uiso   1.00
Si280  Si    0.68420   0.48011   0.89513   0.00000  Uiso   1.00
Si281  Si    0.93514   0.23161   0.89631   0.00000  Uiso   1.00
Si282  Si    0.00622   0.78949   0.60427   0.00000  Uiso   1.00
Si283  Si    0.92111   0.08560   0.60420   0.00000  Uiso   1.00
Si284  Si    0.61160   0.39500   0.60374   0.00000  Uiso   1.00
Si285  Si    0.83078   0.33597   0.89571   0.00000  Uiso   1.00
O286   O     0.89390   0.16807   0.89620   0.00000  Uiso   1.00
O287   O     0.82810   0.57970   0.63270   0.00000  Uiso   1.00
O288   O     0.98780   0.04930   0.60450   0.00000  Uiso   1.00
O289   O     0.88650   0.29460   0.86660   0.00000  Uiso   1.00
O290   O     0.69360   0.57990   0.60310   0.00000  Uiso   1.00
O291   O     0.57510   0.46150   0.60390   0.00000  Uiso   1.00
O292   O     0.63050   0.53960   0.86510   0.00000  Uiso   1.00
O293   O     0.82090   0.70690   0.60440   0.00000  Uiso   1.00
O294   O     0.76670   0.29520   0.89540   0.00000  Uiso   1.00
O295   O     0.64760   0.41346   0.89450   0.00000  Uiso   1.00
O296   O     0.94000   0.82590   0.60510   0.00000  Uiso   1.00
O297   O     0.07300   0.83610   0.63370   0.00000  Uiso   1.00
Na298  Na    0.26421   0.68762   0.80670   0.00000  Uiso   1.00
Na299  Na    0.11250   0.06606   0.68653   0.00000  Uiso   1.00
Na300  Na    0.14365   0.80876   0.81112   0.00000  Uiso   1.00
Si301  Si    0.50000   0.31328   0.25000   0.00000  Uiso   1.00
Si302  Si    0.50000   0.81163   0.25000   0.00000  Uiso   1.00
Na303  Na    0.50000   0.56280   0.25000   0.00000  Uiso   1.00
Si304  Si    0.00000   0.81328   0.25000   0.00000  Uiso   1.00
Si305  Si    0.00000   0.31163   0.25000   0.00000  Uiso   1.00
Na306  Na    0.00000   0.06280   0.25000   0.00000  Uiso   1.00
Si307  Si    0.50000   0.68672   0.75000   0.00000  Uiso   1.00
Si308  Si    0.50000   0.18837   0.75000   0.00000  Uiso   1.00
Na309  Na    0.50000   0.43720   0.75000   0.00000  Uiso   1.00
Si310  Si   -0.00000   0.18672   0.75000   0.00000  Uiso   1.00
Si311  Si   -0.00000   0.68837   0.75000   0.00000  Uiso   1.00
Na312  Na   -0.00000   0.93720   0.75000   0.00000  Uiso   1.00
Cu313  Cu    0.25000   0.75000  -0.00000   0.00000  Uiso   1.00
Cu314  Cu    0.75000   0.75000   0.50000   0.00000  Uiso   1.00
Cu315  Cu    0.25000   0.25000   0.50000   0.00000  Uiso   1.00
Cu316  Cu    0.75000   0.25000   0.00000   0.00000  Uiso   1.00
Cu317  Cu    0.50000   0.50000  -0.00000   0.00000  Uiso   1.00
Cu318  Cu    0.00000   0.00000   0.00000   0.00000  Uiso   1.00
Cu319  Cu    0.50000   0.50000   0.50000   0.00000  Uiso   1.00
Cu320  Cu    0.00000   0.00000   0.50000   0.00000  Uiso   1.00
loop_
_geom_bond_atom_site_label_1
_geom_bond_atom_site_label_2
_geom_bond_distance
_geom_bond_site_symmetry_2
_ccdc_geom_bond_type
Si1    O3      1.600   .     S
Si1    O7      1.606   .     S
Si1    O8      1.606   .     S
Si1    O9      1.602   .     S
O2     Si16    1.649   .     S
O2     Si247   1.659   1_554 S
O3     Si22    1.623   .     S
O4     Si20    1.622   .     S
O4     Si301   1.607   .     S
O5     Si19    1.626   .     S
O5     Si302   1.604   .     S
O6     Si16    1.621   .     S
O6     Si302   1.599   .     S
O7     Si21    1.623   .     S
O8     Si17    1.627   .     S
O9     Si15    1.616   1_545 S
O10    Si18    1.619   .     S
O10    Si301   1.603   .     S
O11    Si15    1.657   1_556 S
O11    Si242   1.658   .     S
O12    Si18    1.656   .     S
O12    Si244   1.658   .     S
O13    Si21    1.665   1_556 S
O13    Si207   1.652   .     S
Cu14   O23     1.941   .     S
Cu14   O219    1.928   .     S
Cu14   Na187   3.199   .     S
Cu14   O258    1.928   .     S
Cu14   Na111   3.141   .     S
Cu14   O140    1.935   .     S
Cu14   Na72    3.220   .     S
Si15   O11     1.657   1_554 S
Si15   O9      1.616   1_565 S
Si15   O24     1.618   .     S
Si15   O27     1.583   .     S
Si16   O24     1.622   .     S
Si16   O30     1.584   .     S
Si17   O29     1.622   1_545 S
Si17   O32     1.582   .     S
Si17   O236    1.658   .     S
Si18   O23     1.577   .     S
Si18   O26     1.620   .     S
Si19   O33     1.577   .     S
Si19   O34     1.624   .     S
Si19   O237    1.658   .     S
Si20   O25     1.579   .     S
Si20   O200    1.652   .     S
Si20   O142    1.618   .     S
Si21   O13     1.665   1_554 S
Si21   O28     1.580   .     S
Si21   O71     1.611   .     S
Si22   O26     1.619   .     S
Si22   O31     1.580   .     S
Si22   O227    1.659   .     S
O23    Na72    2.583   .     S
O23    Na111   2.427   .     S
O25    Na36    2.470   .     S
O25    Cu317   1.937   .     S
O27    Cu127   1.935   1_554 S
O27    Na73    2.430   .     S
O27    Na110   2.595   .     S
O28    Cu318   1.931   .     S
O28    Na73    2.480   1_545 S
O29    Si17    1.622   1_565 S
O29    Si133   1.618   .     S
O29    Na73    2.576   .     S
O30    Cu313   1.933   .     S
O30    Na110   2.578   .     S
O30    Na112   2.436   .     S
O31    Cu315   1.936   .     S
O31    Na72    2.583   .     S
O31    Na74    2.435   .     S
O32    Cu201   1.928   .     S
O32    Na74    2.488   .     S
O33    Cu239   1.928   .     S
O33    Na112   2.489   .     S
O34    Na37    2.564   .     S
O34    Si58    1.611   .     S
Na35   Na37    3.575   .     S
Na35   Cu51    3.220   .     S
Na35   O60     2.583   .     S
Na35   O102    2.595   .     S
Na35   O105    2.578   .     S
Na35   O68     2.583   .     S
Na35   Na149   3.581   .     S
Na35   Cu314   3.231   .     S
Na36   Cu317   3.217   .     S
Na36   Cu89    3.141   1_554 S
Na36   O98     2.427   .     S
Na36   O64     2.430   .     S
Na36   O65     2.480   .     S
Na36   O66     2.576   .     S
Na36   Na148   3.581   .     S
Na37   Cu164   3.199   .     S
Na37   O105    2.436   .     S
Na37   O68     2.435   .     S
Na37   O69     2.488   .     S
Na37   O108    2.489   .     S
Na37   Cu314   3.123   .     S
Si38   O40     1.600   .     S
Si38   O44     1.606   .     S
Si38   O45     1.606   .     S
Si38   O46     1.602   .     S
O39    Si53    1.649   .     S
O39    Si285   1.659   1_554 S
O40    Si59    1.623   .     S
O41    Si57    1.622   .     S
O41    Si304   1.607   1_655 S
O42    Si56    1.626   .     S
O42    Si305   1.604   .     S
O43    Si53    1.621   .     S
O43    Si305   1.599   1_655 S
O44    Si58    1.623   .     S
O45    Si54    1.627   .     S
O46    Si52    1.616   .     S
O47    Si55    1.619   .     S
O47    Si304   1.603   1_655 S
O48    Si52    1.657   1_556 S
O48    Si280   1.658   .     S
O49    Si55    1.656   .     S
O49    Si282   1.658   1_655 S
O50    Si58    1.665   1_556 S
O50    Si170   1.652   .     S
Cu51   O60     1.941   .     S
Cu51   O182    1.928   .     S
Cu51   Na224   3.199   .     S
Cu51   O296    1.928   .     S
Cu51   Na149   3.141   .     S
Cu51   O102    1.935   .     S
Si52   O48     1.657   1_554 S
Si52   O61     1.618   .     S
Si52   O64     1.583   .     S
Si53   O61     1.622   .     S
Si53   O67     1.584   .     S
Si54   O66     1.622   .     S
Si54   O69     1.582   .     S
Si54   O274    1.658   .     S
Si55   O60     1.577   .     S
Si55   O63     1.620   .     S
Si56   O70     1.577   1_455 S
Si56   O71     1.624   .     S
Si56   O275    1.658   1_455 S
Si57   O62     1.579   .     S
Si57   O163    1.652   .     S
Si57   O104    1.618   .     S
Si58   O50     1.665   1_554 S
Si58   O65     1.580   .     S
Si59   O63     1.619   .     S
Si59   O68     1.580   .     S
Si59   O265    1.659   .     S
O60    Na149   2.427   .     S
O62    Na73    2.470   1_655 S
O62    Cu318   1.937   1_665 S
O64    Cu89    1.935   1_554 S
O64    Na148   2.595   .     S
O65    Cu317   1.931   .     S
O66    Si95    1.618   .     S
O67    Cu316   1.933   .     S
O67    Na148   2.578   .     S
O67    Na150   2.436   .     S
O68    Cu314   1.936   .     S
O69    Cu164   1.928   .     S
O70    Si56    1.577   1_655 S
O70    Cu277   1.928   .     S
O70    Na150   2.489   .     S
O71    Na74    2.564   .     S
Na72   Na74    3.575   .     S
Na72   O140    2.595   .     S
Na72   O143    2.578   .     S
Na72   Na111   3.581   .     S
Na72   Cu315   3.231   .     S
Na73   O62     2.470   1_455 S
Na73   Cu318   3.217   1_565 S
Na73   Cu127   3.141   1_554 S
Na73   O136    2.427   .     S
Na73   O28     2.480   1_565 S
Na73   Na110   3.581   .     S
Na74   Cu201   3.199   .     S
Na74   O143    2.436   .     S
Na74   O146    2.489   .     S
Na74   Cu315   3.123   .     S
Si76   O78     1.600   .     S
Si76   O82     1.606   .     S
Si76   O83     1.606   .     S
Si76   O84     1.602   .     S
O77    Si91    1.649   .     S
O77    Si172   1.659   .     S
O78    Si97    1.623   .     S
O79    Si95    1.622   .     S
O79    Si301   1.607   .     S
O80    Si94    1.626   .     S
O80    Si302   1.604   .     S
O81    Si91    1.621   .     S
O81    Si302   1.599   .     S
O82    Si96    1.623   .     S
O83    Si92    1.627   .     S
O84    Si90    1.616   1_545 S
O85    Si93    1.619   .     S
O85    Si301   1.603   .     S
O86    Si90    1.657   .     S
O86    Si167   1.658   .     S
O87    Si93    1.656   1_556 S
O87    Si169   1.658   .     S
O88    Si96    1.665   .     S
O88    Si283   1.652   .     S
Cu89   O98     1.941   1_556 S
Cu89   O295    1.928   .     S
Cu89   Na262   3.199   .     S
Cu89   O183    1.928   .     S
Cu89   Na36    3.141   1_556 S
Cu89   O64     1.935   1_556 S
Cu89   Na148   3.220   1_556 S
Si90   O84     1.616   1_565 S
Si90   O99     1.618   .     S
Si90   O102    1.583   .     S
Si91   O99     1.622   .     S
Si91   O105    1.584   .     S
Si92   O104    1.622   1_545 S
Si92   O107    1.582   .     S
Si92   O161    1.658   .     S
Si93   O87     1.656   1_554 S
Si93   O98     1.577   .     S
Si93   O101    1.620   .     S
Si94   O108    1.577   .     S
Si94   O109    1.624   .     S
Si94   O162    1.658   .     S
Si95   O100    1.579   .     S
Si95   O276    1.652   .     S
Si96   O103    1.580   .     S
Si96   O147    1.611   .     S
Si97   O101    1.619   .     S
Si97   O106    1.580   .     S
Si97   O152    1.659   1_554 S
O98    Cu89    1.941   1_554 S
O98    Na148   2.583   .     S
O100   Na111   2.470   .     S
O100   Cu319   1.937   .     S
O102   Na149   2.430   .     S
O103   Cu320   1.931   1_655 S
O103   Na149   2.480   1_545 S
O104   Si92    1.622   1_565 S
O104   Na149   2.576   .     S
O105   Cu314   1.933   .     S
O106   Cu316   1.936   .     S
O106   Na148   2.583   .     S
O106   Na150   2.435   .     S
O107   Cu277   1.928   .     S
O107   Na150   2.488   .     S
O108   Cu164   1.928   .     S
O109   Na112   2.564   .     S
O109   Si134   1.611   .     S
Na110  Na112   3.575   .     S
Na110  Cu127   3.220   1_554 S
Na110  O136    2.583   .     S
Na110  O144    2.583   .     S
Na110  Cu313   3.231   .     S
Na111  Cu319   3.217   .     S
Na111  O140    2.430   .     S
Na111  O141    2.480   .     S
Na111  O142    2.576   .     S
Na112  Cu239   3.199   .     S
Na112  O144    2.435   .     S
Na112  O145    2.488   .     S
Na112  Cu313   3.123   .     S
Si114  O116    1.600   .     S
Si114  O120    1.606   .     S
Si114  O121    1.606   .     S
Si114  O122    1.602   .     S
O115   Si129   1.649   .     S
O115   Si209   1.659   .     S
O116   Si135   1.623   .     S
O117   Si133   1.622   .     S
O117   Si304   1.607   .     S
O118   Si132   1.626   .     S
O118   Si305   1.604   1_655 S
O119   Si129   1.621   .     S
O119   Si305   1.599   .     S
O120   Si134   1.623   .     S
O121   Si130   1.627   .     S
O122   Si128   1.616   .     S
O123   Si131   1.619   .     S
O123   Si304   1.603   .     S
O124   Si128   1.657   .     S
O124   Si204   1.658   .     S
O125   Si131   1.656   1_556 S
O125   Si206   1.658   1_455 S
O126   Si134   1.665   .     S
O126   Si245   1.652   .     S
Cu127  O136    1.941   1_556 S
Cu127  O257    1.928   .     S
Cu127  Na300   3.199   .     S
Cu127  O220    1.928   .     S
Cu127  Na73    3.141   1_556 S
Cu127  O27     1.935   1_556 S
Cu127  Na110   3.220   1_556 S
Si128  O137    1.618   .     S
Si128  O140    1.583   .     S
Si129  O137    1.622   .     S
Si129  O143    1.584   .     S
Si130  O142    1.622   .     S
Si130  O145    1.582   .     S
Si130  O198    1.658   .     S
Si131  O125    1.656   1_554 S
Si131  O136    1.577   .     S
Si131  O139    1.620   .     S
Si132  O146    1.577   1_655 S
Si132  O147    1.624   .     S
Si132  O199    1.658   1_655 S
Si133  O138    1.579   .     S
Si133  O238    1.652   .     S
Si134  O141    1.580   .     S
Si135  O139    1.619   .     S
Si135  O144    1.580   .     S
Si135  O189    1.659   1_554 S
O136   Cu127   1.941   1_554 S
O138   Na149   2.470   1_455 S
O138   Cu320   1.937   1_565 S
O141   Cu319   1.931   .     S
O143   Cu315   1.933   .     S
O144   Cu313   1.936   .     S
O145   Cu239   1.928   .     S
O146   Si132   1.577   1_455 S
O146   Cu201   1.928   .     S
O147   Na150   2.564   .     S
Na148  Na150   3.575   .     S
Na148  Cu89    3.220   1_554 S
Na148  Cu316   3.231   .     S
Na149  O138    2.470   1_655 S
Na149  Cu320   3.217   1_665 S
Na149  O103    2.480   1_565 S
Na150  Cu277   3.199   .     S
Na150  Cu316   3.123   .     S
Si151  O153    1.600   .     S
Si151  O157    1.606   .     S
Si151  O158    1.606   .     S
Si151  O159    1.602   .     S
O152   Si166   1.649   .     S
O152   Si97    1.659   1_556 S
O153   Si172   1.623   .     S
O154   Si170   1.622   .     S
O154   Si307   1.607   .     S
O155   Si169   1.626   .     S
O155   Si308   1.604   .     S
O156   Si166   1.621   .     S
O156   Si308   1.599   .     S
O157   Si171   1.623   .     S
O158   Si167   1.627   .     S
O159   Si165   1.616   1_565 S
O160   Si168   1.619   .     S
O160   Si307   1.603   .     S
O161   Si165   1.657   1_554 S
O162   Si168   1.656   .     S
O163   Si171   1.665   1_554 S
Cu164  O173    1.941   .     S
Cu164  Na261   3.141   .     S
Cu164  O290    1.935   .     S
Cu164  Na222   3.220   .     S
Si165  O161    1.657   1_556 S
Si165  O159    1.616   1_545 S
Si165  O174    1.618   .     S
Si165  O177    1.583   .     S
Si166  O174    1.622   .     S
Si166  O180    1.584   .     S
Si167  O179    1.622   1_565 S
Si167  O182    1.582   .     S
Si168  O173    1.577   .     S
Si168  O176    1.620   .     S
Si169  O183    1.577   .     S
Si169  O184    1.624   .     S
Si170  O175    1.579   .     S
Si170  O292    1.618   .     S
Si171  O163    1.665   1_556 S
Si171  O178    1.580   .     S
Si171  O221    1.611   .     S
Si172  O176    1.619   .     S
Si172  O181    1.580   .     S
O173   Na222   2.583   .     S
O173   Na261   2.427   .     S
O175   Na186   2.470   .     S
O175   Cu317   1.937   1_556 S
O177   Cu277   1.935   1_556 S
O177   Na223   2.430   .     S
O177   Na260   2.595   .     S
O178   Cu318   1.931   1_666 S
O178   Na223   2.480   1_565 S
O179   Si167   1.622   1_545 S
O179   Si283   1.618   .     S
O179   Na223   2.576   .     S
O180   Cu316   1.933   1_556 S
O180   Na260   2.578   .     S
O180   Na262   2.436   .     S
O181   Cu314   1.936   .     S
O181   Na222   2.583   .     S
O181   Na224   2.435   .     S
O182   Na224   2.488   .     S
O183   Na262   2.489   .     S
O184   Na187   2.564   .     S
O184   Si208   1.611   .     S
Na185  Na187   3.575   .     S
Na185  Cu201   3.220   .     S
Na185  O210    2.583   .     S
Na185  O252    2.595   .     S
Na185  O255    2.578   .     S
Na185  O218    2.583   .     S
Na185  Na299   3.581   .     S
Na185  Cu315   3.231   .     S
Na186  Cu317   3.217   1_556 S
Na186  Cu239   3.141   1_556 S
Na186  O248    2.427   .     S
Na186  O214    2.430   .     S
Na186  O215    2.480   .     S
Na186  O216    2.576   .     S
Na186  Na298   3.581   .     S
Na187  O255    2.436   .     S
Na187  O218    2.435   .     S
Na187  O219    2.488   .     S
Na187  O258    2.489   .     S
Na187  Cu315   3.123   .     S
Si188  O190    1.600   .     S
Si188  O194    1.606   .     S
Si188  O195    1.606   .     S
Si188  O196    1.602   .     S
O189   Si203   1.649   .     S
O189   Si135   1.659   1_556 S
O190   Si209   1.623   .     S
O191   Si207   1.622   .     S
O191   Si310   1.607   .     S
O192   Si206   1.626   .     S
O192   Si311   1.604   1_655 S
O193   Si203   1.621   .     S
O193   Si311   1.599   .     S
O194   Si208   1.623   .     S
O195   Si204   1.627   .     S
O196   Si202   1.616   .     S
O197   Si205   1.619   .     S
O197   Si310   1.603   .     S
O198   Si202   1.657   1_554 S
O199   Si205   1.656   .     S
O199   Si132   1.658   1_455 S
O200   Si208   1.665   1_554 S
Cu201  O210    1.941   .     S
Cu201  Na299   3.141   .     S
Cu201  O252    1.935   .     S
Si202  O198    1.657   1_556 S
Si202  O211    1.618   .     S
Si202  O214    1.583   .     S
Si203  O211    1.622   .     S
Si203  O217    1.584   .     S
Si204  O216    1.622   .     S
Si204  O219    1.582   .     S
Si205  O210    1.577   .     S
Si205  O213    1.620   .     S
Si206  O220    1.577   1_655 S
Si206  O221    1.624   .     S
Si206  O125    1.658   1_655 S
Si207  O212    1.579   .     S
Si207  O254    1.618   .     S
Si208  O200    1.665   1_556 S
Si208  O215    1.580   .     S
Si209  O213    1.619   .     S
Si209  O218    1.580   .     S
O210   Na299   2.427   .     S
O212   Na223   2.470   1_455 S
O212   Cu318   1.937   1_556 S
O214   Cu239   1.935   1_556 S
O214   Na298   2.595   .     S
O215   Cu317   1.931   1_556 S
O216   Si245   1.618   .     S
O217   Cu313   1.933   1_556 S
O217   Na298   2.578   .     S
O217   Na300   2.436   .     S
O218   Cu315   1.936   .     S
O220   Si206   1.577   1_455 S
O220   Na300   2.489   .     S
O221   Na224   2.564   .     S
Na222  Na224   3.575   .     S
Na222  O290    2.595   .     S
Na222  O293    2.578   .     S
Na222  Na261   3.581   .     S
Na222  Cu314   3.231   .     S
Na223  O212    2.470   1_655 S
Na223  Cu318   3.217   1_656 S
Na223  Cu277   3.141   1_556 S
Na223  O286    2.427   .     S
Na223  O178    2.480   1_545 S
Na223  Na260   3.581   .     S
Na224  O293    2.436   .     S
Na224  O296    2.489   .     S
Na224  Cu314   3.123   .     S
Si226  O228    1.600   .     S
Si226  O232    1.606   .     S
Si226  O233    1.606   .     S
Si226  O234    1.602   .     S
O227   Si241   1.649   .     S
O228   Si247   1.623   .     S
O229   Si245   1.622   .     S
O229   Si307   1.607   .     S
O230   Si244   1.626   .     S
O230   Si308   1.604   .     S
O231   Si241   1.621   .     S
O231   Si308   1.599   .     S
O232   Si246   1.623   .     S
O233   Si242   1.627   .     S
O234   Si240   1.616   1_565 S
O235   Si243   1.619   .     S
O235   Si307   1.603   .     S
O236   Si240   1.657   .     S
O237   Si243   1.656   1_554 S
O238   Si246   1.665   .     S
Cu239  O248    1.941   1_554 S
Cu239  Na186   3.141   1_554 S
Cu239  O214    1.935   1_554 S
Cu239  Na298   3.220   1_554 S
Si240  O234    1.616   1_545 S
Si240  O249    1.618   .     S
Si240  O252    1.583   .     S
Si241  O249    1.622   .     S
Si241  O255    1.584   .     S
Si242  O254    1.622   1_565 S
Si242  O257    1.582   .     S
Si243  O237    1.656   1_556 S
Si243  O248    1.577   .     S
Si243  O251    1.620   .     S
Si244  O258    1.577   .     S
Si244  O259    1.624   .     S
Si245  O250    1.579   .     S
Si246  O253    1.580   .     S
Si246  O297    1.611   .     S
Si247  O251    1.619   .     S
Si247  O256    1.580   .     S
Si247  O2      1.659   1_556 S
O248   Cu239   1.941   1_556 S
O248   Na298   2.583   .     S
O250   Na261   2.470   .     S
O250   Cu319   1.937   .     S
O252   Na299   2.430   .     S
O253   Cu320   1.931   1_565 S
O253   Na299   2.480   1_565 S
O254   Si242   1.622   1_545 S
O254   Na299   2.576   .     S
O255   Cu315   1.933   .     S
O256   Cu313   1.936   1_556 S
O256   Na298   2.583   .     S
O256   Na300   2.435   .     S
O257   Na300   2.488   .     S
O259   Na262   2.564   .     S
O259   Si284   1.611   .     S
Na260  Na262   3.575   .     S
Na260  Cu277   3.220   1_556 S
Na260  O286    2.583   .     S
Na260  O294    2.583   .     S
Na260  Cu316   3.231   1_556 S
Na261  Cu319   3.217   .     S
Na261  O290    2.430   .     S
Na261  O291    2.480   .     S
Na261  O292    2.576   .     S
Na262  O294    2.435   .     S
Na262  O295    2.488   .     S
Na262  Cu316   3.123   1_556 S
Si264  O266    1.600   .     S
Si264  O270    1.606   .     S
Si264  O271    1.606   .     S
Si264  O272    1.602   .     S
O265   Si279   1.649   .     S
O266   Si285   1.623   .     S
O267   Si283   1.622   .     S
O267   Si310   1.607   1_655 S
O268   Si282   1.626   .     S
O268   Si311   1.604   .     S
O269   Si279   1.621   .     S
O269   Si311   1.599   1_655 S
O270   Si284   1.623   .     S
O271   Si280   1.627   .     S
O272   Si278   1.616   .     S
O273   Si281   1.619   .     S
O273   Si310   1.603   1_655 S
O274   Si278   1.657   .     S
O275   Si281   1.656   1_554 S
O275   Si56    1.658   1_655 S
O276   Si284   1.665   .     S
Cu277  O286    1.941   1_554 S
Cu277  Na223   3.141   1_554 S
Cu277  O177    1.935   1_554 S
Cu277  Na260   3.220   1_554 S
Si278  O287    1.618   .     S
Si278  O290    1.583   .     S
Si279  O287    1.622   .     S
Si279  O293    1.584   .     S
Si280  O292    1.622   .     S
Si280  O295    1.582   .     S
Si281  O275    1.656   1_556 S
Si281  O286    1.577   .     S
Si281  O289    1.620   .     S
Si282  O296    1.577   1_455 S
Si282  O297    1.624   .     S
Si282  O49     1.658   1_455 S
Si283  O288    1.579   .     S
Si284  O291    1.580   .     S
Si285  O289    1.619   .     S
Si285  O294    1.580   .     S
Si285  O39     1.659   1_556 S
O286   Cu277   1.941   1_556 S
O288   Na299   2.470   1_655 S
O288   Cu320   1.937   1_655 S
O291   Cu319   1.931   .     S
O293   Cu314   1.933   .     S
O294   Cu316   1.936   1_556 S
O296   Si282   1.577   1_655 S
O297   Na300   2.564   .     S
Na298  Na300   3.575   .     S
Na298  Cu239   3.220   1_556 S
Na298  Cu313   3.231   1_556 S
Na299  O288    2.470   1_455 S
Na299  Cu320   3.217   .     S
Na299  O253    2.480   1_545 S
Na300  Cu313   3.123   1_556 S
Si304  O41     1.607   1_455 S
Si304  O47     1.603   1_455 S
Si305  O118    1.604   1_455 S
Si305  O43     1.599   1_455 S
Si310  O267    1.607   1_455 S
Si310  O273    1.603   1_455 S
Si311  O192    1.604   1_455 S
Si311  O269    1.599   1_455 S
Cu313  O217    1.933   1_554 S
Cu313  O256    1.936   1_554 S
Cu313  Na298   3.231   1_554 S
Cu313  Na300   3.123   1_554 S
Cu316  O180    1.933   1_554 S
Cu316  O294    1.936   1_554 S
Cu316  Na260   3.231   1_554 S
Cu316  Na262   3.123   1_554 S
Cu317  O175    1.937   1_554 S
Cu317  Na186   3.217   1_554 S
Cu317  O215    1.931   1_554 S
Cu318  O62     1.937   1_445 S
Cu318  O212    1.937   1_554 S
Cu318  Na73    3.217   1_545 S
Cu318  Na223   3.217   1_454 S
Cu318  O178    1.931   1_444 S
Cu320  O138    1.937   1_545 S
Cu320  O288    1.937   1_455 S
Cu320  Na149   3.217   1_445 S
Cu320  O103    1.931   1_455 S
Cu320  O253    1.931   1_545 S
